# generated using pymatgen
data_Li3PS4
_symmetry_space_group_name_H-M   'P 1'
_cell_length_a   5.59123400
_cell_length_b   5.59123400
_cell_length_c   6.45488392
_cell_angle_alpha   64.33547787
_cell_angle_beta   64.33547787
_cell_angle_gamma   90.00000000
_symmetry_Int_Tables_number   1
_chemical_formula_structural   Li3PS4
_chemical_formula_sum   'Li3 P1 S4'
_cell_volume   159.51098789
_cell_formula_units_Z   1
loop_
 _symmetry_equiv_pos_site_id
 _symmetry_equiv_pos_as_xyz
  1  'x, y, z'
loop_
 _atom_site_type_symbol
 _atom_site_label
 _atom_site_symmetry_multiplicity
 _atom_site_fract_x
 _atom_site_fract_y
 _atom_site_fract_z
 _atom_site_occupancy
  Li  Li0  1  0.50000000  0.50000000  0.00000000  1
  Li  Li1  1  0.75000000  0.25000000  0.50000000  1
  Li  Li2  1  0.25000000  0.75000000  0.50000000  1
  P  P3  1  0.00000000  0.00000000  0.00000000  1
  S  S4  1  0.67017400  0.09623200  0.23359500  1
  S  S5  1  0.09623200  0.67017400  0.23359500  1
  S  S6  1  0.32982600  0.32982600  0.76640500  1
  S  S7  1  0.90376800  0.90376800  0.76640500  1
